LAMMPS (29 Oct 2020)
package gpu 1
package omp 0
using multi-threaded neighbor list subroutines
package omp 1
using multi-threaded neighbor list subroutines
package gpu 1
# tersoff_mod

units		    metal
atom_style	    atomic
atom_modify id yes

read_data	    data.zinit
Reading data file ...
  orthogonal box = (-50.000000 -50.000000 -50.000000) to (50.000000 50.000000 50.000000)
  reading atoms ...
  351 atoms
  reading velocities ...
  351 velocities

region 1 block -50.0 50.0 -50.0 50.0 -50.0 50.0

neighbor	        2.0 bin
neigh_modify	    delay 5 every 1

pair_style	    hybrid/overlay tersoff/mod/gpu lj/cut/gpu 11.795
pair_coeff	    * * tersoff/mod/gpu C-Co.tersoff_mod C C Co
pair_coeff      1*2 2 lj/cut/gpu 0.0024 3.37

# 0.5 fs
timestep	0.0005

group    carbon type 1 2
271 atoms in group carbon
group    metal type 3
80 atoms in group metal

variable tmp equal 1550
variable abg equal 6.02214076*10e23
variable boltz equal 1.380649*10e-23
variable vel equal -sqrt(3*1550/12.01*6.02214076e+24*1.380649e-22)*0.01
variable tar equal random(-50,50,56373)

fix 1 metal nvt temp 1550 1550 $(100.0*dt)
fix 1 metal nvt temp 1550 1550 0.050000000000000002776
fix 2 carbon nve
fix 3 all recenter INIT INIT INIT

compute 1 carbon coord/atom cutoff 2.0 group carbon
compute 2 carbon coord/atom cutoff 3.0 group metal

dump		1 all atom 40000 pos.lammpstrj
dump		2 all custom 40000 vel_lammps.txt  id vx vy vz
dump    3 all custom 40000 force_lammps.txt id fx fy fz
dump    4 all custom 80000 cood.txt id c_1 c_2

run 0
No /omp style for force computation currently active
  update every 1 steps, delay 5 steps, check yes
Step Temp E_pair E_mol TotEng Press
0    1504.2295   -2206.6477            0   -2138.5948    52.797187
Loop time of 5.00679e-06 on 1 procs for 0 steps with 351 atoms

group iclus type 2
0 atoms in group iclus
variable c1 atom "c_1 + c_2 == 0"
group g1 variable c1
80 atoms in group g1
group g2 intersect carbon g1
0 atoms in group g2
group g3 subtract iclus g1
0 atoms in group g3
variable nclus equal count(g2)

thermo $(400*100)
thermo 40000
thermo_style custom step temp etotal pe ke press v_nclus

variable flag equal 0

label  loopa
variable a loop 5

 group g1 delete
 group g2 delete
 group g3 delete
 group iclus delete

 group iclus type 2
0 atoms in group iclus
 variable c1 atom "c_1 + c_2 == 0"
 group g1 variable c1
80 atoms in group g1
 group g2 intersect carbon g1
0 atoms in group g2
 group g3 subtract iclus g1
0 atoms in group g3

 variable nclus equal count(g2)

fix 4 carbon deposit 1 2 1 294894 region 1 near 10 vz -5.67377442406415 -5.67377442406415 target -33.1418037414551 7.6092541217804 34.7578406333923
run 80000
No /omp style for force computation currently active
Step Temp TotEng PotEng KinEng Press v_nclus
0    1504.2295   -2138.5948   -2206.6477    68.052924    52.797187            0
Loop time of 19.1813 on 1 procs for 80000 steps with 352 atoms

unfix 4
variable flag equal 1

next a
jump SELF loopa
variable a loop 5

 group g1 delete
 group g2 delete
 group g3 delete
 group iclus delete

 group iclus type 2
1 atoms in group iclus
 variable c1 atom "c_1 + c_2 == 0"
 group g1 variable c1
81 atoms in group g1
 group g2 intersect carbon g1
1 atoms in group g2
 group g3 subtract iclus g1
0 atoms in group g3

 variable nclus equal count(g2)

run 80000
No /omp style for force computation currently active
Step Temp TotEng PotEng KinEng Press v_nclus
80000    1569.9815   -2125.2045    -2196.435    71.230547   -8.3567184            1
Loop time of 19.3142 on 1 procs for 80000 steps with 352 atoms

next a
jump SELF loopa
variable a loop 5

 group g1 delete
 group g2 delete
 group g3 delete
 group iclus delete

 group iclus type 2
1 atoms in group iclus
 variable c1 atom "c_1 + c_2 == 0"
 group g1 variable c1
81 atoms in group g1
 group g2 intersect carbon g1
1 atoms in group g2
 group g3 subtract iclus g1
0 atoms in group g3

 variable nclus equal count(g2)

run 80000
No /omp style for force computation currently active
Step Temp TotEng PotEng KinEng Press v_nclus
160000    1551.4352   -2130.8562   -2201.2453    70.389099   -86.126864            1
Loop time of 19.5299 on 1 procs for 80000 steps with 352 atoms

next a
jump SELF loopa
variable a loop 5

 group g1 delete
 group g2 delete
 group g3 delete
 group iclus delete

 group iclus type 2
1 atoms in group iclus
 variable c1 atom "c_1 + c_2 == 0"
 group g1 variable c1
81 atoms in group g1
 group g2 intersect carbon g1
1 atoms in group g2
 group g3 subtract iclus g1
0 atoms in group g3

 variable nclus equal count(g2)

run 80000
No /omp style for force computation currently active
Step Temp TotEng PotEng KinEng Press v_nclus
240000    1506.8801   -2135.2695   -2203.6372    68.367617     24.23112            1
Loop time of 19.6867 on 1 procs for 80000 steps with 352 atoms

next a
jump SELF loopa
variable a loop 5

 group g1 delete
 group g2 delete
 group g3 delete
 group iclus delete

 group iclus type 2
1 atoms in group iclus
 variable c1 atom "c_1 + c_2 == 0"
 group g1 variable c1
81 atoms in group g1
 group g2 intersect carbon g1
1 atoms in group g2
 group g3 subtract iclus g1
0 atoms in group g3

 variable nclus equal count(g2)

run 80000
No /omp style for force computation currently active
Step Temp TotEng PotEng KinEng Press v_nclus
320000    1571.9123   -2139.3507   -2210.6689    71.318148    76.493695            1
Loop time of 19.8581 on 1 procs for 80000 steps with 352 atoms

next a
jump SELF loopa
label       break
variable    a delete

write_restart restart.tersoff
System init for write_restart ...
No /omp style for force computation currently active

# run n_local_loop* n_pos_interval* n_frame

Please see the log.cite file for references relevant to this simulation
